/*--------------------------------*- C++ -*----------------------------------*\
  =========                 |
  \\      /  F ield         | OpenFOAM: The Open Source CFD Toolbox
   \\    /   O peration     | Website:  https://openfoam.org
    \\  /    A nd           | Version:  7
     \\/     M anipulation  |
\*---------------------------------------------------------------------------*/
FoamFile
{
    version     2.0;
    format      ascii;
    class       dictionary;
    location    "constant";
    object      thermophysicalProperties;
}
// * * * * * * * * * * * * * * * * * * * * * * * * * * * * * * * * * * * * * //

chemistry           on;
CanteraMechanismFile "drm19.yaml";
transportModel "UnityLewis";
odeCoeffs
{
    // "relTol"   1e-6;
    // "absTol"   1e-10;
}
inertSpecie        "N2";
zeroDReactor
{
    constantProperty "pressure";
}
loadbalancing
{
        active  false;
        //log   true;
}

// ************************************************************************* //
